[TITLE]


[JUNCTIONS]
;ID              	Elev        	Demand      	Pattern         
 10              	55          	20          	1               	;
 23              	45          	20          	1               	;
 21              	45          	10          	1               	;
 31              	30          	20          	1               	;
 34              	35          	20          	1               	;
 11              	40          	5           	1               	;
 24              	35          	20          	1               	;
 22              	30          	20          	1               	;
 36              	30          	10          	1               	;
 20              	30          	10          	1               	;
 30              	30          	10          	1               	;
 32              	35          	10          	1               	;
 25              	30          	10          	1               	;
 35              	40          	5           	1               	;
 33              	35          	5           	1               	;

[RESERVOIRS]
;ID              	Head        	Pattern         
 1               	30          	                	;
 2               	30          	                	;
 3               	20          	                	;

[TANKS]
;ID              	Elevation   	InitLevel   	MinLevel    	MaxLevel    	Diameter    	MinVol      	VolCurve        	Overflow
 4               	80          	6           	1           	10          	20          	0           	                	;
 5               	75          	2           	1           	20          	5           	0           	                	;

[PIPES]
;ID              	Node1           	Node2           	Length      	Diameter    	Roughness   	MinorLoss   	Status
 1023            	10              	23              	1000        	200         	120         	0           	Open  	;
 2131            	21              	31              	500         	250         	120         	0           	Open  	;
 2334            	23              	34              	500         	200         	120         	0           	Open  	;
 1011            	10              	11              	100         	250         	120         	0           	Open  	;
 2324            	23              	24              	350         	100         	120         	0           	Open  	;
 1124            	11              	24              	500         	200         	120         	0           	Open  	;
 2122            	21              	22              	500         	200         	120         	0           	Open  	;
 2436            	24              	36              	100         	125         	120         	0           	Open  	;
 2120            	21              	20              	150         	150         	120         	0           	Open  	;
 3130            	31              	30              	100         	150         	120         	0           	Open  	;
 3132            	31              	32              	100         	150         	120         	0           	Open  	;
 2425            	24              	25              	100         	125         	120         	0           	Open  	;
 3435            	34              	35              	100         	100         	120         	0           	Open  	;
 3433            	34              	33              	100         	100         	120         	0           	Open  	;
 1021            	10              	21              	500         	400         	120         	0           	Open  	;
 104             	10              	4               	100         	500         	120         	0           	Open  	;
 523             	5               	23              	100         	350         	120         	0           	Open  	;

[PUMPS]
;ID              	Node1           	Node2           	Parameters
 110             	1               	10              	HEAD 1	PATTERN 2	;
 210             	2               	10              	HEAD 2	PATTERN 3	;
 323             	3               	23              	HEAD 3	PATTERN 4	;

[VALVES]
;ID              	Node1           	Node2           	Diameter    	Type	Setting     	MinorLoss   

[TAGS]

[DEMANDS]
;Junction        	Demand      	Pattern         	Category

[STATUS]
;ID              	Status/Setting

[PATTERNS]
;ID              	Multipliers
;Demand_type_1
 1               	0.8         	0.8         	0.8         	1.0         	1.2         	1.3         
 1               	1.4         	1.4         	1.4         	1.3         	1.2         	1.1         
 1               	1.0         	0.9         	0.9         	1.0         	1.2         	1.3         
 1               	1.3         	1.2         	1.2         	1.1         	0.9         	0.8         
;
 2               	1           	1           	1           	1           	1           	1           
 2               	1           	1           	1           	1           	1           	1           
 2               	1           	1           	1           	1           	1           	1           
 2               	1           	1           	1           	1           	1           	1           
;
 3               	1           	1           	1           	1           	1           	1           
 3               	1           	1           	1           	1           	1           	1           
 3               	1           	1           	1           	1           	1           	1           
 3               	1           	1           	1           	1           	1           	1           
;
 4               	1           	1           	1           	1           	1           	1           
 4               	1           	1           	1           	1           	1           	1           
 4               	1           	1           	1           	1           	1           	1           
 4               	1           	1           	1           	1           	1           	1           
;
 5               	1           	1           	1           	1           	1           	1           
 5               	1           	1           	1           	1           	1           	1           
 5               	1           	1           	1           	1           	1           	1           
 5               	1           	1           	1           	1           	1           	1           
 5               	1           	1           	1           	1           	1           	1           
 5               	1           	1           	1           	1           	1           	1           
 5               	1           	1           	1           	1           	1           	1           
 5               	1           	1           	1           	1           	1           	1           
;
 6               	1           	1           	1           	1           	1           	1           
 6               	1           	1           	1           	1           	1           	1           
 6               	1           	1           	1           	1           	1           	1           
 6               	1           	1           	1           	1           	1           	1           
 6               	1           	1           	1           	1           	1           	1           
 6               	1           	1           	1           	1           	1           	1           
 6               	1           	1           	1           	1           	1           	1           
 6               	1           	1           	1           	1           	1           	1           

[CURVES]
;ID              	X-Value     	Y-Value
;PUMP: PUMP:
 1               	200         	100         
;PUMP: PUMP:
 2               	100         	100         
;PUMP: PUMP:   PUMP323
 3               	150         	100         

[CONTROLS]




[RULES]



[ENERGY]
 Global Efficiency  	75
 Global Price       	0
 Demand Charge      	0

[EMITTERS]
;Junction        	Coefficient

[QUALITY]
;Node            	InitQual
 10              	0
 23              	0
 21              	0
 31              	0
 34              	0
 11              	0
 24              	0
 22              	0
 36              	0
 20              	0
 30              	0
 32              	0
 25              	0
 35              	0
 33              	0
 1               	0
 2               	0
 3               	0
 4               	0
 5               	0

[SOURCES]
;Node            	Type        	Quality     	Pattern
 10              	SETPOINT    	1           	5
 23              	SETPOINT    	1           	6

[REACTIONS]
;Type     	Pipe/Tank       	Coefficient


[REACTIONS]
 Order Bulk            	1
 Order Tank            	1
 Order Wall            	1
 Global Bulk           	-.5
 Global Wall           	-.5
 Limiting Potential    	0
 Roughness Correlation 	0

[MIXING]
;Tank            	Model

[TIMES]
 Duration           	24:00 
 Hydraulic Timestep 	1:00 
 Quality Timestep   	0:30 
 Pattern Timestep   	1:00 
 Pattern Start      	0:00 
 Report Timestep    	1:00 
 Report Start       	0:00 
 Start ClockTime    	12 am
 Statistic          	NONE

[REPORT]
 Status             	No
 Summary            	No
 Page               	0

[OPTIONS]
 Units              	LPS
 Headloss           	H-W
 Specific Gravity   	1
 Viscosity          	1
 Trials             	40
 Accuracy           	0.001
 CHECKFREQ          	2
 MAXCHECK           	10
 DAMPLIMIT          	0
 Unbalanced         	Continue 10
 Pattern            	1
 Demand Multiplier  	1.0
 Emitter Exponent   	0.5
 Quality            	None mg/L
 Diffusivity        	1
 Tolerance          	0.01

[COORDINATES]
;Node            	X-Coord           	Y-Coord
10              	5077.780          	7444.440          
23              	6188.890          	5933.330          
21              	2877.780          	6244.440          
31              	2655.560          	3422.220          
34              	6011.110          	3533.330          
11              	7388.890          	7222.220          
24              	8633.330          	5533.330          
22              	4188.890          	5755.560          
36              	9744.440          	2177.780          
20              	411.110           	6266.670          
30              	811.110           	3377.780          
32              	3033.330          	1911.110          
25              	10322.220         	5200.000          
35              	7100.000          	2488.890          
33              	4700.000          	3533.330          
1               	1544.440          	9088.890          
2               	9033.330          	9088.890          
3               	4655.560          	6355.560          
4               	5122.220          	8666.670          
5               	6633.330          	6222.220          

[VERTICES]
;Link            	X-Coord           	Y-Coord

[LABELS]
;X-Coord             Y-Coord             Label & Anchor Node

[BACKDROP]
  DIMENSIONS  	0.000             	0.000             	10000.000         	10000.000         
 UNITS          	None
 FILE           	
 OFFSET         	0.00            	0.00            

[END]
