[TITLE]


[JUNCTIONS]
;ID              	Elev        	Demand      	Pattern         
 M36_1           	43.16       	10.94       	poborek         	;
 M68_1           	62.48       	0           	                	;
 37_2            	71.94       	0           	                	;
 M32_26-pob      	30.87       	38.78       	poborek         	;
 M32_24          	28.37       	0           	                	;
 M93_9           	25.99       	64.05       	poborek         	;
 M64_4-pob       	16.88       	665.96      	poborek         	;+Ko³³¹taja,Warszawska,Morska
 M32_20-pob      	30.09       	51.65       	poborek         	;
 M32_17          	25.93       	70.05       	poborek         	;
 231             	26.24       	0           	                	;
 M34_Partyz_1pob 	23.44       	0           	                	;pobor
 M35_Partyz_1pob 	12.55       	243.74      	poborek         	;M35_Partyz_1
 M32_11-pobGEANT 	30.75       	25.29       	poborek         	;GEANT
 M33_20          	33.43       	9.17        	poborek         	;
 M33_19          	35.1        	38.61       	poborek         	;
 84              	27.14       	0           	                	;
 97              	50.72       	101.37      	poborek         	;
 85              	37.24       	17.99       	poborek         	;
 M33_17          	32.88       	15.1        	poborek         	;
 M33_16          	32.76       	0           	                	;
 92              	36.5        	0           	                	;
 93              	36.65       	0           	                	;
 R25_8           	37          	135.2       	poborek         	;
 102             	50.95       	0           	                	;
 105             	54.03       	0           	                	;
 106-pobor       	35.1        	39.39       	poborek         	;
 M28_3           	45.41       	0           	                	;
 M26_8           	44.52       	0           	                	;
 M26_7           	44.51       	0           	                	;
 M28_2           	47.39       	159.65      	poborek         	;
 M28_1           	54.03       	0           	                	;
 H_Redl_WYSO-pob 	72.81       	1           	H_REDLOWO_WYSOK 	;POBOR STREFA WYSOKA
 259-pob         	25          	332.63      	poborek         	;pocz¹tek 200tki do hydroforni Wielkopolskich
 262-pob         	20.86       	437.99      	poborek         	;
 M33_11-pob      	39.25       	50.44       	poborek         	;
 M33_7           	31.23       	43.49       	poborek         	;
 M33_5-pob       	35.04       	82.21       	poborek         	;
 M33_3           	39.73       	0           	                	;
 M26_3           	19.56       	0           	                	;
 M26_2           	18.81       	0           	                	;
 303-pob         	7.24        	47.46       	poborek         	;
 305             	19.51       	0           	                	;
 M31_3-pob       	21.8        	0           	                	;sredniecis=53m
 M31_4           	19.51       	0           	                	;
 309             	30.16       	0           	                	;
 M93_5-pob       	24.73       	369.5       	poborek         	;
 335-pob         	13.07       	554.67      	poborek         	;
 M70_25          	13.48       	16.38       	poborek         	;
 338             	9.86        	232.63      	poborek         	;
 M84_1           	10.51       	83.17       	poborek         	;
 M84_2-pob       	9           	635.85      	poborek         	;
 M89_1-pob       	0.9         	2532.06     	poborek         	;
 M70_24          	14.24       	41.32       	poborek         	;
 M70_21-pob      	14.16       	233.54      	poborek         	;+ ul.Grabowo i ul.Morska
 M70_19          	16.85       	124.22      	poborek         	;
 M59_7           	23.23       	68.85       	poborek         	;
 M60_3-pob       	19.32       	0           	                	;+ ul.Mrongowiusza i ul. Mireckiego
 M64_3           	24.71       	137.70      	poborek         	;+ ul. Ko³³¹taja i ul. Okoniewskiego
 372-pob         	10.99       	1           	372-pob         	;
 M70_16-pob      	20.81       	336.41      	poborek         	;POBOR
 M70_15          	18.62       	288.48      	poborek         	;
 M56_2           	21.12       	45.14       	poborek         	;
 M70_12-pob      	16.92       	191.53      	poborek         	;
 M70_8           	23.78       	263.06      	poborek         	;
 M70_5-pob       	22.03       	132.5       	poborek         	;POBOR
 M70_1-pob       	22.85       	336.35      	poborek         	;
 395             	20.25       	178.55      	poborek         	;
 M54_2-pob       	20.69       	165.79      	poborek         	;
 M54_11-pob      	20.9        	335.87      	poborek         	;
 407             	36.83       	0           	                	;
 M81_1-pob       	37.46       	45.08       	poborek         	;
 M81_5-pob       	41.2        	81.06       	poborek         	;
 M81_6           	45.94       	54.01       	poborek         	;
 417-pob         	37.8        	142.85      	poborek         	;
 M80_6           	31.98       	0           	                	;
 M80_8           	46.79       	0           	                	;
 M82_1           	47.68       	1           	H_ZAMEK         	;
 432             	25.76       	84.22       	poborek         	;
 RUMIAREDA_POBOR 	30.99       	0.57        	RUMIAzP1-pob    	;POBOR - RUMIA,REDA
 438             	18.96       	0           	                	;
 439             	15.85       	0           	                	;
 440             	14.74       	1           	440-pob         	;
 M54_1           	30.56       	0           	                	;
 442             	37.14       	0           	                	;
 443             	36.5        	0           	                	;
 444             	41.3        	0           	                	;
 445             	41.3        	0           	                	;
 M50_4           	41.3        	0           	                	;
 M50_1           	16.27       	0           	                	;
 M76_16          	18.76       	1           	M96_3-pob       	;
 M96_4-pob       	25.78       	1           	M96_4-pob       	;
 56-pobor        	30.5        	283.97      	poborek         	;
 55              	35          	33.48       	poborek         	;
 R25_7-pob       	38          	53.28       	poborek         	;ul. Stryjskiej
 74              	54.03       	0           	                	;
 R25_5-cisn2     	22.8        	226.25      	poborek         	;srcis=55m
 R25_4-pob       	19.2        	44.38       	poborek         	;
 R25_3           	19.5        	0           	                	;
 R25_1-pob       	19.55       	130.96      	poborek         	;
 R1302_1-pob     	27          	108.52      	poborek         	;
 R1302_3-pob     	42          	26.11       	poborek         	;
 R1308_1         	52.3        	0           	                	;
 M38_1           	5.7         	0           	                	;
 H_Redl_SRED-pob 	80          	1           	H_REDLOWO_SREDN 	;Pobor STREFA ŒREDNIA
 87              	50.95       	0           	                	;
 M31_2           	34.25       	0           	                	;
 R1302_3         	30.6        	272.85      	poborek         	;
 M86_3           	3.2         	704.08      	poborek         	;
 M81_3-pob       	43.8        	0           	                	;
 M70_7-pob       	23          	474.29      	poborek         	;
 700-pob         	42          	10.12       	poborek         	;POBOR; wysokoœæ do sprwdzenia
 316             	49.85       	0           	                	;
 237             	15          	90.44       	poborek         	;
 703-popb        	17          	107.86      	poborek         	;
 701-pob         	23.8        	283.24      	poborek         	;
 702-pob         	21.5        	60.57       	poborek         	;POBOR,brak loczenia z 150
 M70_6-pob       	22.4        	102.94      	poborek         	;
 M54_8-pob       	25          	157.86      	poborek         	;
 M54_9           	30.4        	37.78       	poborek         	;
 312             	43.5        	0           	                	;
 M60_4           	15.8        	185.6       	poborek         	;
 373             	46.16       	0           	                	;
 M60_1           	21          	164.74      	poborek         	;
 396             	74          	0           	                	;
 M26_6-pob       	43          	59.94       	poborek         	;srednie cisnieni ok. 30m (0,3 MPa)
 57-pob          	2.7         	1257.78     	poborek         	;
 owocowe-pob     	18.35       	48.45       	poborek         	;
 pom_pob         	44          	400.88      	poborek         	;pomorska, witominska
 1               	6           	1.28        	RUMIAzREDA      	;Rumia z Reda pobor
 M26_4           	22.73       	0           	                	;œred ciœ 53m
 2               	80          	1           	H_WIELKOPOLSKAI 	;
 3               	104.5       	1           	H_DEMBINSKIEGO  	;
 4               	80.5        	1           	H_SKARBKA       	;
 5               	57          	1           	H_KARTUSKA      	;

[RESERVOIRS]
;ID              	Head        	Pattern         
 UW_SIERADZKA    	39.6        	                	;
 K4_Kolibki      	30.09       	                	;
 UW_REDAII       	5.7         	                	;

[TANKS]
;ID              	Elevation   	InitLevel   	MinLevel    	MaxLevel    	Diameter    	MinVol      	VolCurve        	Overflow
 ZB_Witomino     	72.02       	2           	0           	4.33        	24.54       	0           	                	;v=2000m3 / v=2046 m3
 ZB_Kwidzynski_L 	71.9        	2.07        	0           	4.65        	35.5        	0           	                	;v=5000m3 / 4600,3 m3
 ZB_Kwidzynski_P 	71.91       	2.07        	0           	4.65        	30          	0           	                	;v=5000m3  / v=3278m3
 Zb_P1           	41.4        	2.5         	0           	5.5         	34          	0           	                	;V = 5000 m^3

[PIPES]
;ID              	Node1           	Node2           	Length      	Diameter    	Roughness   	MinorLoss   	Status
 M37             	M36_1           	M68_1           	247.8       	400         	87          	0           	Open  	;¿el 1972
 248             	M68_1           	37_2            	89.5        	600         	87          	0           	Open  	;¿el. 1972
 M36_ZbKdoZbC_1  	M36_1           	ZB_Witomino     	116.5       	400         	55          	0           	Open  	;¿el. 1939 zmienione i to jak !!!
 259             	37_2            	ZB_Kwidzynski_L 	1020        	600         	85          	0           	Open  	;zmieniona
 260             	37_2            	ZB_Kwidzynski_P 	27.3        	600         	87          	0           	Open  	;¿el. 1972 - zmieniona
 263             	M36_1           	M32_26-pob      	202.7       	400         	55          	0           	Open  	;¿el. 1939 zmieniona
 264             	M32_26-pob      	M32_24          	271.2       	400         	55          	0           	Open  	;¿el. 1939 - zmieniona
 266             	M32_26-pob      	M93_9           	310.6       	300         	85          	0           	Open  	;
 M67_P1-KW1      	pom_pob         	M64_4-pob       	715         	600         	87          	0           	Open  	;¿el. 1972 zmieniona
 271             	M32_24          	M32_20-pob      	147.9       	400         	55          	0           	Open  	;¿el. 1939 - zmieniona
 272             	M32_20-pob      	M32_17          	175         	400         	55          	0           	Open  	;¿el.1939 - zmieniona
 275             	M32_17          	231             	62.4        	400         	85          	0           	Open  	;
 276             	231             	M34_Partyz_1pob 	120.4       	300         	85          	0           	Open  	;zmieniona
 279             	M34_Partyz_1pob 	M35_Partyz_1pob 	974         	300         	75          	0           	Open  	;1974 Zel - zmieniona (wycieta 150)
 M32_Sier-ZWit12 	M32_17          	M32_11-pobGEANT 	353.4       	400         	85          	0           	Open  	;zmieniona
 M32_Sier-ZWit11 	M32_11-pobGEANT 	M33_20          	510         	400         	85          	0           	Open  	;zmieniona
 M33_Sier-ZWit20 	M33_20          	M33_19          	401.9       	350         	55          	0           	Open  	;zel 1936
 145             	M32_24          	84              	53.3        	400         	85          	0           	Open  	;
 147             	M33_19          	85              	130.6       	200         	85          	0           	Open  	;zel
 M33_Sier-ZWit19 	M33_19          	M33_17          	111.1       	400         	55          	0           	Open  	;zel 1939 - zmieniona
 M33_Sier-ZWit17 	M33_17          	M33_16          	4           	350         	85          	0           	Open  	;
 M_Red£u¿ycka_5  	M33_17          	92              	211         	400         	85          	0           	Open  	;zmieniona
 235             	92              	93              	3.1         	250         	85          	0           	Open  	;
 236             	93              	R25_8           	29.1        	200         	85          	0           	Open  	;
 237             	92              	106-pobor       	187.6       	250         	85          	0           	Open  	;
 249             	97              	102             	1000        	250         	85          	0           	Open  	;
 303             	M26_8           	M26_7           	1000        	400         	85          	0           	Open  	;
 304             	M26_7           	M28_3           	1000        	400         	85          	0           	Open  	;
 M_Red£u¿ycka_3  	92              	M28_3           	242         	400         	85          	0           	Open  	;zel zmieniona
 M_Red£u¿ycka_2  	M28_3           	M28_2           	102.7       	400         	85          	0           	Open  	;zel
 M_Red£u¿ycka_1  	M28_2           	M28_1           	177.4       	400         	85          	0           	Open  	;zel
 310             	97              	H_Redl_WYSO-pob 	485.6       	250         	85          	0           	Open  	;zel
 313             	106-pobor       	259-pob         	747.2       	250         	85          	0           	Open  	;zmieniona
 314             	259-pob         	M34_Partyz_1pob 	296.7       	350         	85          	0           	Open  	;zel - zmieniony wezel
 315             	M34_Partyz_1pob 	262-pob         	180         	300         	85          	0           	Open  	;zel
 334             	M33_16          	93              	210.1       	200         	85          	0           	Open  	;zel
 361             	303-pob         	M26_2           	585         	200         	85          	0           	Open  	;zel - zmieniona
 362             	M26_3           	R25_1-pob       	36.3        	200         	64          	0           	Open  	;zel 1965 - zmieniona
 M30_KolAlZw_6   	M31_4           	M31_3-pob       	119.9       	200         	64          	0           	Open  	;zel 1965
 390             	M93_5-pob       	335-pob         	484.2       	300         	85          	0           	Open  	;zel - zmieniona
 367             	M64_4-pob       	M70_25          	82.5        	600         	85          	0           	Open  	;zel
 395             	M70_25          	338             	377         	400         	85          	0           	Open  	;zel - zmieniona
 396             	338             	M84_1           	22          	300         	87          	0           	Open  	;¿el. 1974
 397             	M84_1           	M84_2-pob       	206         	300         	87          	0           	Open  	;¿el. 1974
 398             	M84_2-pob       	M86_3           	431.3       	300         	87          	0           	Open  	;¿el. 1974 - zmieniona
 409             	M84_1           	M93_5-pob       	539         	300         	85          	0           	Open  	;¿el - zmieniona
 M70_Morska_25   	M70_25          	M70_24          	447.2       	600         	100         	0           	Open  	;¿el. 1979
 M70_Morska_22   	M70_24          	M70_21-pob      	951         	600         	100         	0           	Open  	;¿el. 1979 - zmieniona
 M70_Morska_20   	M70_21-pob      	M70_19          	961.8       	600         	100         	0           	Open  	;¿el. 1979 - zmieniona
 M72_Kalsztajnow 	M70_19          	M59_7           	112         	400         	96          	0           	Open  	;¿el. 1979
 M64_P1-KW1      	M64_3           	M64_4-pob       	448.2       	600         	87          	0           	Open  	;¿el. 1972
 425             	M70_16-pob      	372-pob         	745.6       	300         	85          	0           	Open  	;zel - zmieniona
 M71_Dzia³dowska 	M70_15          	M56_2           	74.9        	600         	100         	0           	Open  	;¿el. 1979
 456             	395             	M54_2-pob       	26          	400         	85          	0           	Open  	;
 M54_P1-KW3      	M54_2-pob       	M54_8-pob       	1954.3      	600         	87          	0           	Open  	;¿el. 1972 - zmieniona
 M54_P1-KW11     	M54_9           	M54_11-pob      	1414.5      	600         	87          	0           	Open  	;¿el. 1972 zmieniona
 M56_P1-KW1      	M54_11-pob      	M56_2           	270.4       	600         	87          	0           	Open  	;¿el. 1972 - zmieniona
 466             	M54_9           	407             	465.1       	300         	85          	0           	Open  	;zmieniona
 469             	407             	M81_1-pob       	45.3        	300         	85          	0           	Open  	;
 M81_KartChrB_2  	M81_1-pob       	M81_3-pob       	226         	300         	96          	0           	Open  	;¿el. 1982
 M81_KartChrB_4  	M81_3-pob       	M81_5-pob       	182.3       	300         	96          	0           	Open  	;¿el. 1982 - zmieniona
 M81_KartChrB_5  	M81_5-pob       	M81_6           	500.5       	300         	96          	0           	Open  	;¿el. 1982
 475             	M81_6           	417-pob         	341.9       	300         	85          	0           	Open  	;zel - zmieniona
 480             	417-pob         	M80_6           	296         	300         	85          	0           	Open  	;zel - zmieniona
 M80_Obw-¯uraw_1 	M80_6           	M54_8-pob       	750         	400         	96          	0           	Open  	;¿el. 1982 - zmieniona
 M81_KartChrB_6  	M81_6           	M80_8           	786.6       	300         	96          	0           	Open  	;¿el. 1982
 M80_Obw-¯uraw_8 	M80_8           	M80_6           	561.5       	300         	96          	0           	Open  	;¿el. 1982 - zmieniona
 502             	432             	438             	180.5       	400         	85          	0           	Open  	;
 503             	438             	439             	400         	800         	85          	0           	Open  	;zel
 504             	439             	440             	274         	400         	85          	0           	Open  	;
 509             	444             	445             	16.7        	600         	85          	0           	Open  	;
 ZB_P1           	M50_4           	Zb_P1           	52.9        	600         	97          	0           	Open  	;¿el. 1969
 513             	444             	Zb_P1           	36.6        	600         	99          	0           	Open  	;
 M76_Pó³-Po³_1   	M54_8-pob       	owocowe-pob     	800         	500         	96          	0           	Open  	;¿el 1981 - zmieniona
 569             	259-pob         	56-pobor        	384.5       	100         	55          	0           	Open  	;¿el.1938
 570             	56-pobor        	55              	400         	100         	85          	0           	Open  	;
 571             	55              	R25_8           	180.5       	200         	85          	0           	Open  	;
 R25_AlZw_OR_8   	R25_8           	R25_7-pob       	551         	200         	55          	0           	Open  	;AC 1942
 R25_AlZw_OR_4   	R25_5-cisn2     	R25_4-pob       	574.2       	200         	107         	0           	Open  	;AC 1942 (czyszczona w 1995)
 R25_AlZw_OR_3   	R25_4-pob       	R25_3           	174.6       	200         	107         	0           	Open  	;AC 1942 (czyszczona w 1995)
 R25_AlZw_OR_2   	R25_3           	R25_1-pob       	38.2        	200         	107         	0           	Open  	;AC 1942 (czyszczona w 1995) - zmieniona
 M38_UReda_1     	M38_1           	M50_1           	8061.9      	800         	90          	0           	Open  	;¿el. 1969 - zmieniona
 231             	H_Redl_SRED-pob 	74              	176.8       	150         	85          	0           	Open  	;zmieniona
 284             	R25_8           	87              	393         	200         	85          	0           	Open  	;
 M30_KolAlZw_4   	309             	M31_2           	345.7       	250         	75          	0           	Open  	;zel 1965 (srednie cis = 45m) zmieniona (wypad 150 i 300)
 M30_KolAlZw_5   	M31_2           	M31_3-pob       	348.2       	200         	64          	0           	Open  	;zel 1965
 R1302_3         	R1302_1-pob     	R1302_3         	322         	200         	107         	0           	Open  	;stal oc. 1990 zmieniona
 R1348           	R1302_3         	M31_2           	1051        	200         	140         	0           	Open  	;PE 2002 - zmieniona
 R1302_4         	R1302_3         	R1302_3-pob     	362.5       	200         	107         	0           	Open  	;stal oc. 1990
 R599_£owicka    	R1302_3-pob     	M33_7           	562         	200         	64          	0           	Open  	;¿el. 1957
 R1302_5         	R1302_3-pob     	R1308_1         	193         	200         	107         	0           	Open  	;¿el. 1991
 316             	57-pob          	M86_3           	512.6       	200         	85          	0           	Open  	;zmieniona (wyciete 150)
 318             	M86_3           	M89_1-pob       	553.9       	300         	75          	0           	Open  	;¿el. 1974 zmieniona
 450             	M81_3-pob       	700-pob         	369.5       	100         	85          	0           	Open  	;
 471             	700-pob         	316             	720         	100         	85          	0           	Open  	;
 619             	M70_8           	701-pob         	313.5       	250         	85          	0           	Open  	;
 621             	701-pob         	703-popb        	587.2       	250         	85          	0           	Open  	;zmieniona
 623             	703-popb        	237             	335         	250         	85          	0           	Open  	;
 624             	702-pob         	703-popb        	628         	200         	85          	0           	Open  	;
 631             	M70_7-pob       	M54_9           	395         	350         	85          	0           	Open  	;
 M81_KartChrB_1  	M54_9           	M81_1-pob       	490         	350         	96          	0           	Open  	;¿el. 1982
 618             	407             	312             	170         	200         	85          	0           	Open  	;
 M62_P1-KW       	M60_4           	M64_3           	1011        	600         	87          	0           	Open  	;¿el. 1972 - zmieniona
 M73_Grabowo     	M60_4           	M70_21-pob      	109         	400         	96          	0           	Open  	;¿el. 1979
 M75_Okoniewskie 	M64_3           	M70_24          	87.2        	400         	96          	0           	Open  	;¿el. 1979
 M60_P1-KW1      	M59_7           	M60_1           	123.1       	600         	87          	0           	Open  	;¿el. 1972
 643             	M60_1           	373             	660         	200         	85          	0           	Open  	;
 255             	396             	ZB_Witomino     	3.7         	400         	85          	0           	Open  	;
 121             	305             	M26_2           	30          	200         	85          	0           	Open  	;sprawdzic
 15              	105             	102             	74.6        	250         	85          	0           	Open  	;zel - zmieniona
 122             	84              	M93_9           	397         	150         	85          	0           	Open  	;zmieniona
 389             	M93_9           	M93_5-pob       	244.1       	300         	85          	0           	Open  	;¿el - zmieniona
 M60_P1-KW4      	M60_3-pob       	M60_4           	463.2       	600         	87          	0           	Open  	;¿el. 1972
 M60_P1-KW2      	M60_1           	M60_3-pob       	378.7       	600         	87          	0           	Open  	;¿el. 1972 - zmieniona
 M70_Morska_18   	M70_16-pob      	M70_19          	760         	600         	100         	0           	Open  	;¿el. 1979 - zmieniona
 M70_Morska_16   	M70_15          	M70_16-pob      	255.4       	600         	100         	0           	Open  	;¿el. 1979
 M58_P1-KW1      	M56_2           	M59_7           	1194.6      	600         	87          	0           	Open  	;¿el. 1972 - zmieniona
 M70_Morska_13   	M70_12-pob      	M70_15          	519.1       	600         	100         	0           	Open  	;¿el. 1979 - zmieniona
 M70_Morska_9    	M70_8           	M70_12-pob      	901.95      	600         	100         	0           	Open  	;¿el. 1979 - zmieniona
 M70_Morska_8    	M70_7-pob       	M70_8           	426         	450         	100         	0           	Open  	;¿el. 1979
 M54_P1-KW9      	M54_8-pob       	M54_9           	267.2       	600         	87          	0           	Open  	;¿el. 1972
 M70_Morska_1    	395             	M70_1-pob       	270.2       	450         	100         	0           	Open  	;¿el. 1979
 M70_Morska_2    	M70_1-pob       	M70_5-pob       	1473.3      	450         	100         	0           	Open  	;¿el. 1979 - zmieniona
 M70_Morska_6    	M70_5-pob       	M70_6-pob       	203         	450         	96          	0           	Open  	;¿el. 1979
 M70_Morska_7    	M70_6-pob       	M70_7-pob       	395.4       	450         	96          	0           	Open  	;¿el. 1979
 664             	395             	432             	362         	300         	85          	0           	Open  	;zel - zmieniona
 669             	432             	RUMIAREDA_POBOR 	614.5       	300         	85          	0           	Open  	;zel - zmieniona
 671             	M50_1           	M50_4           	738.1       	800         	90          	0           	Open  	;¿el. 1969 - zmieniona
 M54_P1-KW1      	443             	M54_1           	59.2        	600         	85          	0           	Open  	;
 674             	443             	442             	10.4        	600         	85          	0           	Open  	;
 675             	444             	442             	21.7        	600         	85          	0           	Closed	;
 676             	442             	M54_1           	65.2        	600         	85          	0           	Open  	;
 M54_P1-KW2      	M54_1           	M54_2-pob       	239.8       	600         	87          	0           	Open  	;¿el. 1972
 M26_Orlowo_5    	M26_6-pob       	M26_7           	892.4       	400         	85          	0           	Open  	;
 M26_Orlowo_4    	M26_4           	M26_6-pob       	905.5       	400         	93          	0           	Open  	;zmieniona
 R25_AlZw_OR_5   	R25_5-cisn2     	R25_7-pob       	896.4       	200         	107         	0           	Open  	;AC 1942 (czyszczona w 1995) - zmieniona
 19              	M31_3-pob       	R25_3           	290         	150         	85          	0           	Open  	;
 M33_Sier-ZWit5  	M33_3           	M33_5-pob       	378.4       	350         	55          	0           	Open  	;¿el. 1939 - zmieniona
 M33_Sier-ZWit6  	M33_5-pob       	M33_7           	485.6       	350         	55          	0           	Open  	;¿el. 1939 - zmieniona
 M33_Sier-ZWit9  	M33_7           	M33_11-pob      	1025        	350         	55          	0           	Open  	;¿el. 1939 - zmieniona
 M33_Sier-ZWit12 	M33_11-pob      	M33_16          	706.8       	350         	55          	0           	Open  	;¿el. 1939 - zmieniona
 R131_1          	R1302_1-pob     	R25_5-cisn2     	340         	150         	55          	0           	Open  	;¿el. 1936 zmieniona (wypad 200)
 M26_Orlowo      	M26_3           	M26_2           	7           	200         	64          	0           	Open  	;zel 1965
 M82_ZurPC_1     	M80_8           	M82_1           	97          	250         	89          	0           	Open  	;¿el. 1982
 1               	M76_16          	owocowe-pob     	1658        	500         	96          	0           	Open  	;
 2               	M68_1           	pom_pob         	715         	600         	87          	0           	Open  	;pomorska/witominska
 3               	1               	M38_1           	200         	400         	97          	0           	Open  	;
 4               	M26_3           	M26_4           	622.8       	400         	93          	0           	Open  	;

[PUMPS]
;ID              	Node1           	Node2           	Parameters
 P1_Sieradzka    	UW_SIERADZKA    	M33_3           	HEAD SIERADZKA_P1	PATTERN P1_SIERADZKA	;zmieniona
 233             	M28_1           	74              	HEAD REDLOWO_Z1	;ZASILA STREFÊ ŒREDNI¥
 234             	M28_1           	105             	HEAD REDLOWO_Z4	PATTERN 234	;Zasila STREFE WYSOK¥
 SUW_KOLIBKI     	K4_Kolibki      	309             	HEAD nasza_zastepcza	PATTERN SUW_KOLIBKI	;
 P4_PP1          	445             	443             	HEAD P1_Z3	PATTERN P4_PP1	;
 SUW_REDA        	UW_REDAII       	M38_1           	HEAD REDA_P1	PATTERN SUW_REDA	;
 wielko_polsk    	R1308_1         	2               	HEAD WIELKOPOLSKA	PATTERN wielko_polsk	;h_out=51,2
 dembinski       	373             	3               	HEAD DEMBINSKIEGO	PATTERN dembinski	;h_out=75
 skarbka_hyd     	316             	4               	HEAD SKARBKA_Z1	PATTERN skarbka_hyd	;h_out=46,1
 kartuska_hyd    	312             	5               	HEAD KARTUSKA	PATTERN kartuska_hyd	;h_out=58,35

[VALVES]
;ID              	Node1           	Node2           	Diameter    	Type	Setting     	MinorLoss   
 RedC_Redlow1    	87              	102             	200         	PRV 	0           	20          	;REDUKTOR CISNIENIA
 324             	M50_4           	445             	600         	PRV 	0           	0           	;
 124             	M31_4           	305             	200         	PRV 	0           	0           	;
 363             	237             	M96_4-pob       	200         	PRV 	0           	0           	;

[TAGS]
 NODE 	M89_1-pob       	SilverScreen
 NODE 	M64_3           	ul
 NODE 	R25_5-cisn2     	2.