[TITLE]


[JUNCTIONS]
;ID              	Elev        	Demand      	Pattern         
 M36_1           	43.16       	0.00        	c_sla_podol_p_s 	;
 M68_1           	62.48       	0.00        	c_sla_podol_p_s 	;
 37_2            	71.94       	0.00        	c_chab_kar_p_s  	;
 M32_26-pob      	30.87       	0.00        	c_sla_podol_p_s 	;
 M32_24          	28.37       	0.00        	c_abr_zw_wi_p_s 	;
 M93_9           	25.99       	0.00        	c_abr_zw_wi_p_s 	;
 M32_17          	25.93       	0.00        	c_al_zw_red_p_s 	;
 M34_Partyz_1pob 	23.44       	0.00        	c_al_zw_red_p_s 	;
 M33_20          	33.43       	0.00        	c_al_zw_red_p_s 	;
 M33_19          	35.10       	0.00        	c_al_zw_red_p_s 	;
 84              	27.14       	0.00        	c_abr_zw_wi_p_s 	;
 85              	37.24       	0.00        	c_al_zw_red_p_s 	;
 M33_17          	32.88       	0.00        	c_al_zw_red_p_s 	;
 93              	36.65       	0.00        	c_al_zw_red_p_s 	;
 c_al_zw_red_p_s 	38.60       	1.00        	c_al_zw_red_p_s 	;
 redl_wy         	52.00       	0.00        	c_chab_kar_p_s  	;
 M28_3           	45.41       	0.00        	c_al_zw_red_p_s 	;
 h_redl_p_s      	54.03       	0.00        	c_chab_kar_p_s  	;
 h_redl_q_wy     	72.81       	1.00        	h_redl_q_wy     	;
 259-pob         	25.00       	0.00        	c_al_zw_red_p_s 	;
 262-pob         	20.86       	0.00        	c_al_zw_red_p_s 	;
 M33_7           	31.23       	0.00        	pat_wiel_I      	;
 suw_sier_p_tl   	39.73       	41.11       	c_chab_kar_p_s  	;
 M26_2           	18.81       	0.00        	c_al_zw_wie_p_s 	;
 M31_3-pob       	21.80       	0.00        	c_al_zw_wie_p_s 	;
 suw_kolib_p_tl  	29.00       	0.00        	c_chab_kar_p_s  	;
 c_abr_zw_wi_p_s 	15.00       	1.00        	c_abr_zw_wi_p_s 	;
 M70_25          	13.48       	0.00        	c_kol_war_p_s   	;
 M84_1           	10.51       	0.00        	c_abr_zw_wi_p_s 	;
 M70_24          	14.24       	0.00        	c_kol_war_p_s   	;
 M70_21-pob      	14.16       	0.00        	c_kol_war_p_s   	;
 M70_19          	16.85       	0.00        	c_dzi_mla_p_s   	;
 M59_7           	23.23       	0.00        	c_dzi_mla_p_s   	;
 M64_3           	24.71       	0.00        	c_kol_war_p_s   	;
 M70_16-pob      	20.81       	0.00        	c_dzi_mla_p_s   	;
 M56_2           	21.12       	0.00        	c_dzi_mla_p_s   	;
 M70_8           	23.78       	0.00        	c_chyl_pol_p_s  	;
 M70_5-pob       	22.03       	0.00        	c_chyl_pol_p_s  	;
 395             	20.25       	0.00        	c_chab_kar_p_s  	;
 M54_2-pob       	20.69       	0.00        	c_chab_kar_p_s  	;
 M81_1-pob       	37.46       	0.00        	h_kart_p_s      	;
 M81_6           	45.94       	0.00        	h_zuraw_p_s     	;
 417-pob         	37.80       	0.00        	h_zuraw_p_s     	;
 M80_6           	31.98       	0.00        	h_zuraw_p_s     	;
 M80_8           	46.79       	0.00        	h_zuraw_p_s     	;
 h_zuraw_p_s     	47.68       	1.00        	h_zuraw_p_s     	;
 432             	25.76       	1.00        	c_chab_kar_p_s  	;
 RUMIAzReda      	30.99       	0.57        	RUMIAzP1-pob    	;
 440             	14.74       	1.00        	440-pob         	;
 M54_1           	30.56       	0.00        	c_chab_kar_p_s  	;
 h_P1_p_tl       	41.30       	0.00        	c_chab_kar_p_s  	;
 444             	41.30       	0.00        	c_chab_kar_p_s  	;
 h_P1_p_s        	41.30       	0.00        	c_chab_kar_p_s  	;
 M50_4           	41.30       	0.00        	c_chab_kar_p_s  	;
 M50_1           	16.27       	0.00        	c_chab_kar_p_s  	;
 55              	35.00       	0.00        	c_al_zw_red_p_s 	;
 redl_sr         	52.00       	0.00        	c_chab_kar_p_s  	;
 R25_3           	19.50       	0.00        	c_al_zw_wie_p_s 	;
 R1302_1-pob     	27.00       	0.00        	pat_wiel_I      	;
 R1302_3-pob     	42.00       	0.00        	pat_wiel_I      	;
 h_wiel_I_p_s    	55.00       	1.00        	pat_wiel_I      	;
 suw_red_q       	5.70        	0.00        	c_chab_kar_p_s  	;
 h_redl_q_sr     	54.00       	1.00        	h_redl_q_sr     	;
 M31_2           	34.25       	0.00        	pat_wiel_I      	;
 R1302_3         	30.60       	0.00        	pat_wiel_I      	;
 M81_3-pob       	43.80       	0.00        	h_kart_p_s      	;
 h_skar_p_s      	50.50       	1.00        	h_skar_p_s      	;
 M54_8-pob       	25.00       	0.00        	c_chyl_pol_p_s  	;
 M54_9           	30.40       	0.00        	c_chyl_pol_p_s  	;
 h_kart_p_s      	43.50       	1.00        	h_kart_p_s      	;
 M60_4           	15.80       	0.00        	c_kol_war_p_s   	;
 h_dem_p_s       	42.16       	1.00        	h_dem_p_s       	;
 M60_1           	23.00       	0.00        	c_dzi_mla_p_s   	;
 396             	74.00       	0.00        	c_chab_kar_p_s  	;
 M26_6-pob       	43.00       	0.00        	c_al_zw_wie_p_s 	;
 1               	6.00        	1.28        	RUMIAzREDA      	;
 2               	40.00       	0.00        	c_chab_kar_p_s  	;
 suw_red_p_tl    	0.00        	0.00        	c_chab_kar_p_s  	;

[RESERVOIRS]
;ID              	Head        	Pattern         
 suw_sier_p_p2_s 	39.60       	                	;
 suw_kolib_p_s   	30.09       	                	;
 suw_red_p_s     	5.70        	                	;

[TANKS]
;ID              	Elevation   	InitLevel   	MinLevel    	MaxLevel    	Diameter    	MinVol      	VolCurve        	Overflow
 zb_wito_h       	72.02       	4.50        	0.00        	4.53        	11.85       	0.00        	                	;
 zb_kwidz_h_l    	71.90       	2.67        	0.00        	4.65        	35.50       	0.00        	                	;
 zb_kwidz_h_p    	71.91       	3.72        	0.00        	4.64        	35.50       	0.00        	                	;
 zb_P1_h         	41.40       	3.83        	0.00        	4.64        	35.50       	0.00        	                	;

[PIPES]
;ID              	Node1           	Node2           	Length      	Diameter    	Roughness   	MinorLoss   	Status
 M37             	M36_1           	M68_1           	247.80      	400.00      	87.00       	0.0000      	Open  	;
 248             	M68_1           	37_2            	89.50       	600.00      	87.00       	0.0000      	Open  	;
 M36_ZbKdoZbC_1  	M36_1           	zb_wito_h       	116.50      	400.00      	55.00       	0.0000      	Open  	;
 259             	37_2            	zb_kwidz_h_l    	1020.00     	600.00      	85.00       	0.0000      	Open  	;
 260             	37_2            	zb_kwidz_h_p    	27.30       	600.00      	87.00       	0.0000      	Open  	;
 263             	M36_1           	M32_26-pob      	202.70      	400.00      	55.00       	0.0000      	Open  	;
 264             	M32_26-pob      	M32_24          	271.20      	400.00      	55.00       	0.0000      	Open  	;
 266             	M32_26-pob      	M93_9           	310.60      	300.00      	85.00       	0.0000      	Open  	;
 M33_Sier-ZWit20 	M33_20          	M33_19          	401.90      	350.00      	55.00       	0.0000      	Open  	;
 145             	M32_24          	84              	53.30       	400.00      	85.00       	0.0000      	Open  	;
 147             	M33_19          	85              	130.60      	200.00      	85.00       	0.0000      	Open  	;
 M33_Sier-ZWit19 	M33_19          	M33_17          	111.10      	400.00      	55.00       	0.0000      	Open  	;
 236             	93              	c_al_zw_red_p_s 	29.10       	200.00      	85.00       	0.0000      	Open  	;
 314             	259-pob         	M34_Partyz_1pob 	296.70      	350.00      	85.00       	0.0000      	Open  	;
 315             	M34_Partyz_1pob 	262-pob         	180.00      	300.00      	85.00       	0.0000      	Open  	;
 409             	M84_1           	c_abr_zw_wi_p_s 	539.00      	300.00      	85.00       	0.0000      	Open  	;
 M70_Morska_25   	M70_25          	M70_24          	447.20      	600.00      	100.00      	0.0000      	Open  	;
 M70_Morska_22   	M70_24          	M70_21-pob      	951.00      	600.00      	100.00      	0.0000      	Open  	;
 M70_Morska_20   	M70_21-pob      	M70_19          	961.80      	600.00      	100.00      	0.0000      	Open  	;
 M72_Kalsztajnow 	M70_19          	M59_7           	112.00      	400.00      	96.00       	0.0000      	Open  	;
 456             	395             	M54_2-pob       	26.00       	400.00      	85.00       	0.0000      	Open  	;
 M54_P1-KW3      	M54_2-pob       	M54_8-pob       	1954.30     	600.00      	87.00       	0.0000      	Open  	;
 M81_KartChrB_2  	M81_1-pob       	M81_3-pob       	226.00      	300.00      	96.00       	0.0000      	Open  	;
 475             	M81_6           	417-pob         	341.90      	300.00      	85.00       	0.0000      	Open  	;
 480             	417-pob         	M80_6           	296.00      	300.00      	85.00       	0.0000      	Open  	;
 M80_Obw-¯uraw_1 	M80_6           	M54_8-pob       	750.00      	400.00      	96.00       	0.0000      	Open  	;
 M81_KartChrB_6  	M81_6           	M80_8           	786.60      	300.00      	96.00       	0.0000      	Open  	;
 M80_Obw-¯uraw_8 	M80_8           	M80_6           	561.50      	300.00      	96.00       	0.0000      	Open  	;
 509             	444             	h_P1_p_s        	16.70       	600.00      	85.00       	0.0000      	Open  	;
 513             	444             	zb_P1_h         	36.60       	600.00      	99.00       	0.0000      	Open  	;
 571             	55              	c_al_zw_red_p_s 	180.50      	200.00      	85.00       	0.0000      	Open  	;
 M38_UReda_1     	suw_red_q       	M50_1           	8061.90     	800.00      	90.00       	0.0000      	Open  	;
 231             	h_redl_q_sr     	redl_sr         	176.80      	150.00      	85.00       	0.0000      	Open  	;
 suw_kolib_q     	suw_kolib_p_tl  	M31_2           	345.70      	250.00      	75.00       	0.0000      	Open  	;
 M30_KolAlZw_5   	M31_2           	M31_3-pob       	348.20      	200.00      	64.00       	0.0000      	Open  	;
 R1302_3         	R1302_1-pob     	R1302_3         	322.00      	200.00      	107.00      	0.0000      	Open  	;
 R1348           	R1302_3         	M31_2           	1051.00     	200.00      	140.00      	0.0000      	Open  	;
 R1302_4         	R1302_3         	R1302_3-pob     	362.50      	200.00      	107.00      	0.0000      	Open  	;
 R599_£owicka    	R1302_3-pob     	M33_7           	562.00      	200.00      	64.00       	0.0000      	Open  	;
 R1302_5         	R1302_3-pob     	h_wiel_I_p_s    	193.00      	200.00      	107.00      	0.0000      	Open  	;
 M81_KartChrB_1  	M54_9           	M81_1-pob       	490.00      	350.00      	151.43      	0.0000      	Open  	;
 M62_P1-KW       	M60_4           	M64_3           	1011.00     	600.00      	87.00       	0.0000      	Open  	;
 M73_Grabowo     	M60_4           	M70_21-pob      	109.00      	400.00      	96.00       	0.0000      	Open  	;
 M75_Okoniewskie 	M64_3           	M70_24          	87.20       	400.00      	96.00       	0.0000      	Open  	;
 M60_P1-KW1      	M59_7           	M60_1           	123.10      	600.00      	87.00       	0.0000      	Open  	;
 h_dem_q         	M60_1           	h_dem_p_s       	660.00      	200.00      	85.00       	0.0000      	Open  	;
 255             	396             	zb_wito_h       	3.70        	400.00      	85.00       	0.0000      	Open  	;
 122             	84              	M93_9           	397.00      	150.00      	85.00       	0.0000      	Open  	;
 389             	M93_9           	c_abr_zw_wi_p_s 	244.10      	300.00      	85.00       	0.0000      	Open  	;
 M70_Morska_18   	M70_16-pob      	M70_19          	760.00      	600.00      	100.00      	0.0000      	Open  	;
 M54_P1-KW9      	M54_8-pob       	M54_9           	267.20      	600.00      	87.00       	0.0000      	Open  	;
 664             	395             	432             	362.00      	300.00      	85.00       	0.0000      	Open  	;
 669             	432             	RUMIAzReda      	614.50      	300.00      	85.00       	0.0000      	Open  	;
 671             	M50_1           	M50_4           	738.10      	800.00      	90.00       	0.0000      	Open  	;
 M54_P1-KW1      	h_P1_p_tl       	M54_1           	59.20       	600.00      	85.00       	0.0000      	Open  	;
 h_P1_q          	M54_1           	M54_2-pob       	239.80      	600.00      	87.00       	0.0000      	Open  	;
 19              	M31_3-pob       	R25_3           	290.00      	150.00      	85.00       	0.0000      	Open  	;
 M82_ZurPC_1     	M80_8           	h_zuraw_p_s     	97.00       	250.00      	89.00       	0.0000      	Open  	;
 3               	1               	suw_red_q       	200.00      	400.00      	97.00       	0.0000      	Open  	;
 M60_P1-KW2      	M60_1           	M60_4           	841.90      	600.00      	87.00       	0.0000      	Open  	;
 M32_Sier-ZWit12 	M32_17          	M33_20          	863.40      	400.00      	85.00       	0.0000      	Open  	;
 M70_MORSKA_1    	395             	M70_5-pob       	1743.50     	450.00      	100.00      	0.0000      	Open  	;
 h_kart_q        	M81_1-pob       	h_kart_p_s      	170.00      	200.00      	85.00       	0.0000      	Open  	;
 h_skar_q        	M81_3-pob       	h_skar_p_s      	1089.50     	100.00      	85.00       	0.0000      	Open  	;
 M54_P1-KW11     	M54_9           	M56_2           	1684.90     	600.00      	87.00       	0.0000      	Open  	;
 M70_Morska_9    	M70_8           	M70_16-pob      	1676.45     	600.00      	100.00      	0.0000      	Open  	;
 M71_Dzia³dowska 	M70_16-pob      	M56_2           	74.90       	600.00      	100.00      	0.0000      	Open  	;
 395/396/edit    	M70_25          	M84_1           	399.00      	400.00      	78.13       	0.0000      	Open  	;
 569/570/edit    	259-pob         	55              	784.50      	100.00      	65.51       	0.0000      	Open  	;
 271/272/edit    	M32_24          	M32_17          	322.90      	400.00      	55.00       	0.0000      	Open  	;
 M_Red£u¿ycka_2  	M28_3           	h_redl_p_s      	280.10      	400.00      	85.00       	0.0000      	Open  	;
 4/M26_Orlowo_4  	M26_2           	M26_6-pob       	1528.30     	400.00      	93.00       	0.0000      	Open  	;
 R25_AlZw_OR_2   	R25_3           	M26_2           	81.50       	200.00      	76.54       	0.0000      	Open  	;
 suw_sier_q      	suw_sier_p_tl   	M33_7           	864.00      	350.00      	55.00       	0.0000      	Open  	;
 502/503/504     	432             	440             	854.50      	400.00      	85.00       	0.0000      	Open  	;
 275/276/edit    	M32_17          	M34_Partyz_1pob 	182.40      	400.00      	46.58       	0.0000      	Open  	;
 M33_Sier-Wit12  	M33_7           	M33_17          	1733.80     	350.00      	55.00       	0.0000      	Open  	;
 334             	M33_17          	93              	210.10      	400.00      	85.00       	0.0000      	Open  	;
 2               	zb_P1_h         	2               	1.00        	600.00      	150.00      	0.0000      	Open  	;
 5               	h_P1_p_tl       	M54_1           	75.60       	600.00      	85.00       	0.0000      	Open  	;
 12              	M26_6-pob       	M28_3           	1900.00     	400.00      	85.00       	0.0000      	Open  	;
 14              	93              	M28_3           	242.00      	400.00      	85.00       	0.0000      	Open  	;
 16              	259-pob         	93              	940.00      	250.00      	85.00       	0.0000      	Open  	;
 18              	redl_wy         	h_redl_q_wy     	1609.00     	250.00      	85.00       	0.0000      	Open  	;
 suw_red_q       	suw_red_p_tl    	suw_red_q       	1000.00     	1000.00     	150.00      	0.0000      	Open  	;

[PUMPS]
;ID              	Node1           	Node2           	Parameters
 REDLOW_SŒ       	h_redl_p_s      	redl_sr         	HEAD REDLOWO_Z1	PATTERN CZ_RED_SR_P4	;
 REDLOWO_SW      	h_redl_p_s      	redl_wy         	HEAD REDLOWO_Z4	PATTERN CZ_RED_WY_P1	;
 UW_KOLIB_P2     	suw_kolib_p_s   	suw_kolib_p_tl  	HEAD KOLIBKI_P1	PATTERN CZ_KOLIB_P2	;
 UW_P1_P4        	h_P1_p_s        	h_P1_p_tl       	HEAD P1_Z4	PATTERN CZ_P1_P4	;
 UW_SIERADZ_P1   	suw_sier_p_p2_s 	suw_sier_p_tl   	HEAD SIERADZKA_P1	PATTERN CZ_SIER_P1	;
 UW_KOLUB_P1     	suw_kolib_p_s   	suw_kolib_p_tl  	HEAD KOLIBKI_P1	PATTERN CZ_KOLIB_P1	;
 UW_SIERADZ_P2   	suw_sier_p_p2_s 	suw_sier_p_tl   	HEAD SIERADZKA_P1	PATTERN CZ_SIER_P2	;
 UW_P1_P1        	h_P1_p_s        	h_P1_p_tl       	HEAD P1_Z1	PATTERN CZ_P1_P1	;
 UW_REDA_P1      	suw_red_p_s     	suw_red_p_tl    	HEAD REDA_P1	PATTERN CZ_REDA_P1	;
 UW_REDA_P2      	suw_red_p_s     	suw_red_p_tl    	HEAD REDA_P1	PATTERN CZ_REDA_P2	;

[VALVES]
;ID              	Node1           	Node2           	Diameter    	Type	Setting     	MinorLoss   
 4               	M50_4           	2               	10000.00    	PSV 	1           	0.00        	;

[TAGS]

[DEMANDS]
;Junction        	Demand      	Pattern         	Category

[STATUS]
;ID              	Status/Setting
 UW_KOLIB_P2     	Closed
 UW_P1_P4        	Closed
 UW_SIERADZ_P2   	Closed
 UW_REDA_P2      	Closed
 4               	Open

[PATTERNS]
;ID              	Multipliers
;
 H_WIELKOPOLSKAI 	3.2960      	7.8740      	6.9580      	9.5580      	6.3360      	6.8120      
 H_WIELKOPOLSKAI 	8.6430      	4.1020      	4.9070      	4.6510      	6.5550      	9.7050      
 H_WIELKOPOLSKAI 	7.9100      	9.0090      	10.8770     	6.5550      	19.3730     	8.9720      
 H_WIELKOPOLSKAI 	0.0000      	0.0000      	0.0000      	0.0000      	2.0870      	4.5050      
 H_WIELKOPOLSKAI 	0.0000      	6.1890      	10.1810     	11.0600     	9.8880      	11.0970     
 H_WIELKOPOLSKAI 	8.7530      	6.7750      	8.9720      	13.9160     	7.6910      	15.2710     
 H_WIELKOPOLSKAI 	11.6090     	10.9500     	10.9500     	6.4460      	5.2370      	7.1780      
 H_WIELKOPOLSKAI 	5.7130      	2.5270      	2.1970      	0.0000      	3.8820      	0.0000      
 H_WIELKOPOLSKAI 	2.0870      	2.4540      	5.9330      	7.8010      	11.7920     	0.0000      
 H_WIELKOPOLSKAI 	3.0760      	8.7530      	3.0760      	6.1890      	8.9360      	4.9440      
 H_WIELKOPOLSKAI 	11.4630     	9.3020      	5.6400      	5.3830      	6.7750      	10.3640     
 H_WIELKOPOLSKAI 	4.6880      	2.4170      	0.0000      	0.0000      	0.0000      	4.3580      
 H_WIELKOPOLSKAI 	3.8090      	6.0790      	10.3640     	8.0940      	6.7750      	8.5700      
 H_WIELKOPOLSKAI 	8.0940      	8.3860      	8.9720      	10.3640     	6.6650      	18.0550     
 H_WIELKOPOLSKAI 	10.0710     	7.9100      	15.1980     	12.1590     	14.7220     	6.1160      
 H_WIELKOPOLSKAI 	3.1500      	0.0000      	0.0000      	3.0760      	3.8450      	0.0000      
 H_WIELKOPOLSKAI 	8.9720      	10.3640     	12.1590     	11.9020     	7.8010      	10.5470     
 H_WIELKOPOLSKAI 	5.7130      	6.8120      	6.1530      	11.5360     	9.4490      	7.4340      
 H_WIELKOPOLSKAI 	10.3640     	12.1590     	13.2210     	9.6680      	14.2090     	8.1300      
 H_WIELKOPOLSKAI 	3.9920      	0.0000      	0.0000      	0.0000      	2.1970      	3.1130      
 H_WIELKOPOLSKAI 	5.8960      	8.0200      	13.2210     	9.7050      	10.7670     	5.8230      
 H_WIELKOPOLSKAI 	5.4200      	4.8340      	7.0680      	4.9070      	9.6320      	7.3240      
 H_WIELKOPOLSKAI 	13.4400     	8.0200      	10.2540     	18.7140     	14.5760     	5.7130      
 H_WIELKOPOLSKAI 	3.2960      	3.1130      	0.0000      	0.0000      	0.0000      	4.7240      
 H_WIELKOPOLSKAI 	3.4060      	7.7270      	11.3530     	4.5410      	8.6790      	8.0200      
 H_WIELKOPOLSKAI 	10.2540     	7.2150      	2.7830      	0.0000      	10.2180     	8.8260      
 H_WIELKOPOLSKAI 	10.0710     	13.2570     	14.7950     	9.2290      	7.1780      	6.9950      
 H_WIELKOPOLSKAI 	6.1890      	5.0170      	0.0000      	0.0000      	0.0000      	4.2850      
 H_WIELKOPOLSKAI 	6.4460      
;
 H_SKARBKA       	7.7500      	8.5000      	11.0630     	5.4880      	4.0880      	5.7880      
 H_SKARBKA       	6.0880      	6.0130      	8.5000      	8.3250      	8.2880      	6.1750      
 H_SKARBKA       	5.6750      	7.9000      	9.3750      	11.0630     	8.3500      	8.5630      
 H_SKARBKA       	7.2880      	2.7380      	2.3380      	1.7250      	1.8250      	1.4000      
 H_SKARBKA       	1.7750      	5.4630      	10.3380     	11.2880     	8.2250      	12.4250     
 H_SKARBKA       	8.6380      	17.0380     	10.7000     	14.1500     	8.6630      	11.2500     
 H_SKARBKA       	1.8880      	12.8880     	15.9000     	18.2260     	12.7000     	11.0250     
 H_SKARBKA       	6.8750      	2.3880      	1.0380      	1.7630      	1.2880      	1.0000      
 H_SKARBKA       	4.8250      	5.5380      	4.4500      	6.9880      	3.2500      	1.5000      
 H_SKARBKA       	11.9380     	6.4750      	12.5880     	6.7500      	3.6500      	6.3880      
 H_SKARBKA       	10.7000     	16.0500     	11.4500     	10.4750     	14.3000     	8.8000      
 H_SKARBKA       	3.6880      	2.0750      	0.9250      	1.5630      	0.8000      	3.5880      
 H_SKARBKA       	5.3750      	10.2380     	10.0250     	17.0260     	6.8250      	9.3750      
 H_SKARBKA       	6.7750      	6.8000      	10.1130     	4.4630      	18.4130     	6.8750      
 H_SKARBKA       	4.3880      	12.7000     	21.2760     	19.6880     	12.6630     	8.7000      
 H_SKARBKA       	3.2630      	0.8630      	1.8500      	2.0750      	1.7130      	4.7000      
 H_SKARBKA       	7.6880      	8.1000      	12.5880     	8.4750      	9.7500      	3.0130      
 H_SKARBKA       	4.2000      	10.2750     	10.9880     	10.0250     	8.3880      	11.8000     
 H_SKARBKA       	9.8380      	15.8000     	16.7510     	18.7760     	17.6880     	9.6630      
 H_SKARBKA       	4.2880      	3.2500      	2.0250      	1.2380      	1.3500      	3.6880      
 H_SKARBKA       	7.2880      	10.4500     	12.4750     	7.4380      	5.1630      	5.1000      
 H_SKARBKA       	5.7750      	5.3630      	3.4000      	8.9250      	6.9380      	8.1500      
 H_SKARBKA       	7.8380      	8.3880      	13.3130     	12.4250     	12.5750     	7.1750      
 H_SKARBKA       	3.3000      	3.7750      	0.6500      	1.2500      	2.0250      	5.5250      
 H_SKARBKA       	8.3250      	8.9500      	4.8380      	8.3380      	8.5630      	5.2250      
 H_SKARBKA       	11.9880     	5.1000      	6.4000      	5.9500      	7.6000      	14.2880     
 H_SKARBKA       	9.9630      	16.9380     	20.3760     	16.9130     	19.9880     	2.2130      
 H_SKARBKA       	4.7500      	2.3130      	2.4750      	1.2880      	1.6000      	4.4630      
 H_SKARBKA       	7.5880      
;
 H_KAMIENNA      	2.3750      	2.1630      	2.4130      	1.0130      	1.8630      	1.4250      
 H_KAMIENNA      	0.4000      	1.3370      	0.6500      	0.4380      	3.3000      	0.6880      
 H_KAMIENNA      	2.6880      	2.4750      	1.9750      	0.1630      	1.3000      	1.4000      
 H_KAMIENNA      	0.8500      	1.7380      	0.4250      	0.3500      	0.0750      	0.7750      
 H_KAMIENNA      	0.7620      	0.9880      	3.0500      	2.3370      	3.6000      	1.6630      
 H_KAMIENNA      	2.3250      	1.7380      	1.4000      	2.4500      	1.7380      	2.2000      
 H_KAMIENNA      	3.3000      	1.6500      	3.0750      	2.5130      	1.2380      	0.9380      
 H_KAMIENNA      	1.2750      	1.2000      	1.2380      	0.3130      	0.0370      	0.1880      
 H_KAMIENNA      	0.3880      	1.6750      	1.3370      	0.2120      	3.0130      	2.5130      
 H_KAMIENNA      	2.2250      	0.3130      	2.5250      	2.5250      	0.1500      	1.4000      
 H_KAMIENNA      	0.3250      	2.1880      	0.5880      	2.1880      	2.3750      	0.6500      
 H_KAMIENNA      	1.0630      	0.4500      	0.2630      	0.0370      	0.7750      	0.2630      
 H_KAMIENNA      	0.0000      	2.6500      	0.2630      	0.4250      	2.6880      	3.5000      
 H_KAMIENNA      	1.1380      	0.0000      	1.8630      	2.2000      	3.3750      	3.5250      
 H_KAMIENNA      	4.5630      	6.6380      	4.8380      	3.8500      	5.3250      	4.0130      
 H_KAMIENNA      	0.9380      	1.0750      	2.4750      	2.5500      	3.5630      	1.2380      
 H_KAMIENNA      	3.0750      	2.8250      	4.8880      	1.0500      	2.2880      	1.0380      
 H_KAMIENNA      	2.5500      	3.0000      	1.8370      	1.1250      	3.7750      	2.9870      
 H_KAMIENNA      	6.7000      	5.6620      	6.0880      	5.2870      	2.9750      	2.5870      
 H_KAMIENNA      	0.0630      	0.3750      	1.8000      	0.1380      	1.9620      	0.0000      
 H_KAMIENNA      	4.4120      	3.0130      	3.9750      	1.0630      	3.9620      	4.0130      
 H_KAMIENNA      	2.0130      	0.7000      	0.1500      	0.1000      	1.5500      	0.3380      
 H_KAMIENNA      	4.6750      	3.7250      	4.7130      	5.6000      	1.8500      	1.7630      
 H_KAMIENNA      	0.2250      	0.2870      	0.7500      	0.4870      	0.1380      	0.3880      
 H_KAMIENNA      	0.8250      	0.2120      	5.7130      	2.8000      	0.7750      	3.8250      
 H_KAMIENNA      	0.7750      	0.2120      	2.6250      	1.0380      	1.1630      	1.8250      
 H_KAMIENNA      	2.2120      	4.1500      	2.4000      	2.6120      	2.4620      	3.0000      
 H_KAMIENNA      	0.7000      	1.6500      	0.9120      	0.4380      	0.6750      	1.1250      
 H_KAMIENNA      	0.3500      
;
 H_KARTUSKA      	5.1520      	6.0060      	8.1300      	9.7420      	6.3230      	3.4180      
 H_KARTUSKA      	3.6380      	6.4700      	4.9070      	4.8590      	6.0060      	5.5910      
 H_KARTUSKA      	4.4190      	5.5420      	8.8380      	5.9080      	3.3940      	4.5410      
 H_KARTUSKA      	3.4670      	0.0000      	0.0000      	0.0000      	0.0000      	1.1470      
 H_KARTUSKA      	1.3180      	4.1510      	7.6910      	7.4950      	6.8360      	4.9810      
 H_KARTUSKA      	6.4940      	4.3700      	6.5190      	6.0300      	5.1520      	5.2000      
 H_KARTUSKA      	6.2010      	8.5450      	9.5950      	8.2280      	6.9340      	6.6160      
 H_KARTUSKA      	3.6870      	3.1010      	2.1490      	0.0000      	0.0000      	0.0000      
 H_KARTUSKA      	0.0000      	3.4670      	3.4910      	7.1540      	11.1090     	11.0600     
 H_KARTUSKA      	4.7610      	8.6180      	3.5650      	5.0780      	3.4910      	6.7630      
 H_KARTUSKA      	6.9580      	5.6400      	9.0820      	10.1080     	6.7380      	5.3710      
 H_KARTUSKA      	0.0000      	1.7820      	0.0000      	0.0000      	0.0000      	0.0000      
 H_KARTUSKA      	3.3450      	7.7150      	6.5920      	8.0570      	4.4190      	4.6140      
 H_KARTUSKA      	6.2750      	6.5920      	4.1510      	5.1030      	7.5200      	4.1020      
 H_KARTUSKA      	4.2970      	4.9070      	8.9600      	6.1530      	10.5960     	4.1020      
 H_KARTUSKA      	3.1250      	3.4180      	0.0000      	0.0000      	0.0000      	1.9290      
 H_KARTUSKA      	2.8810      	9.1310      	4.6630      	10.1080     	6.2750      	4.7360      
 H_KARTUSKA      	5.5180      	3.2230      	5.7620      	6.2500      	3.9800      	4.7360      
 H_KARTUSKA      	6.0790      	5.7620      	11.4260     	3.6130      	9.9610      	5.0050      
 H_KARTUSKA      	1.9530      	0.0000      	0.0000      	0.0000      	0.0000      	1.5630      
 H_KARTUSKA      	5.1030      	9.1070      	7.1050      	6.7630      	8.9360      	5.5910      
 H_KARTUSKA      	4.2970      	3.6870      	4.3950      	2.3930      	5.5420      	4.6140      
 H_KARTUSKA      	6.8120      	10.1570     	7.5200      	6.8610      	8.5450      	4.8340      
 H_KARTUSKA      	2.6120      	0.0000      	0.0000      	0.0000      	0.0000      	1.1960      
 H_KARTUSKA      	3.5400      	6.4940      	4.9560      	6.9340      	6.1040      	5.5420      
 H_KARTUSKA      	3.2230      	3.9310      	5.3710      	3.8820      	5.2740      	3.9310      
 H_KARTUSKA      	4.6630      	6.5680      	6.4940      	5.3220      	6.1280      	4.4920      
 H_KARTUSKA      	2.3680      	0.0000      	0.0000      	0.0000      	0.0000      	2.1730      
 H_KARTUSKA      	5.4200      
;
 H_ZURAWIA       	5.0000      	5.0000      	5.0000      	5.0000      	5.0000      	5.0000      
 H_ZURAWIA       	5.0000      	3.0000      	3.0000      	3.0000      	3.0000      	4.0000      
 H_ZURAWIA       	5.0000      	6.0000      	8.0000      	6.0000      	6.0000      	4.0000      
 H_ZURAWIA       	1.0000      	1.0000      	0.0000      	0.0000      	0.0000      	1.0000      
;
 h_redl_q_sr     	29.3090     	56.7570     	55.6760     	57.0270     	59.7000     	51.7720     
 h_redl_q_sr     	51.6820     	36.8470     	43.8140     	45.1350     	50.2110     	54.5950     
 h_redl_q_sr     	49.7300     	52.4630     	51.4420     	57.1780     	55.5560     	40.2400     
 h_redl_q_sr     	40.8710     	19.3690     	20.3600     	19.8500     	18.3780     	17.8680     
 h_redl_q_sr     	25.1650     	41.1110     	56.0660     	73.0640     	62.6130     	58.7390     
 h_redl_q_sr     	55.5560     	60.6910     	55.0750     	54.1140     	53.6340     	52.1620     
 h_redl_q_sr     	55.5560     	45.0750     	56.3070     	56.3070     	35.4060     	40.9910     
 h_redl_q_sr     	38.6790     	21.5620     	18.9190     	17.1470     	19.3690     	17.4180     
 h_redl_q_sr     	20.5710     	31.0210     	43.0630     	56.0660     	61.4120     	63.0630     
 h_redl_q_sr     	55.5560     	48.9190     	54.1140     	51.9520     	45.0450     	39.6400     
 h_redl_q_sr     	46.5770     	45.6160     	53.6340     	54.7150     	64.5950     	56.5470     
 h_redl_q_sr     	36.6070     	19.4000     	19.3690     	18.4090     	19.6100     	19.4000     
 h_redl_q_sr     	36.9370     	56.3070     	62.6130     	57.7480     	52.4930     	31.7420     
 h_redl_q_sr     	44.4450     	50.9610     	49.0090     	53.4240     	45.6160     	44.4450     
 h_redl_q_sr     	49.5200     	64.2650     	65.0450     	79.9100     	73.7840     	54.5950     
 h_redl_q_sr     	43.6640     	23.9040     	20.3300     	16.4570     	22.3120     	22.1020     
 h_redl_q_sr     	36.1260     	71.5920     	65.7960     	60.6310     	55.0750     	48.5290     
 h_redl_q_sr     	47.7780     	39.5200     	44.1740     	44.8050     	42.3730     	59.4600     