[TITLE]

[JUNCTIONS]
 M36_1                                43.1600
 M68_1                                62.4800
 37_2                                 71.9400
 M32_26-pob                           30.8700
 M32_24                               28.3700
 M93_9                                25.9900
 M64_4-pob                            16.8800
 M32_20-pob                           30.0900
 M32_17                               25.9300
 231                                  26.2400
 M34_Partyz_1pob                      23.4400
 M35_Partyz_1pob                      12.5500
 M32_11-pobGEANT                      30.7500
 M33_20                               33.4300
 M33_19                               35.1000
 84                                   27.1400
 97                                   50.7200
 85                                   37.2400
 M33_17                               32.8800
 M33_16                               32.7600
 92                                   36.5000
 93                                   36.6500
 R25_8                                37.0000
 102                                  50.9500
 105                                  54.0300
 106-pobor                            35.1000
 M28_3                                45.4100
 M26_8                                44.5200
 M26_7                                44.5100
 M28_2                                47.3900
 M28_1                                54.0300
 H_Redl_WYSO-pob                      72.8100
 259-pob                              25.0000
 262-pob                              20.8600
 M33_11-pob                           39.2500
 M33_7                                31.2300
 M33_5-pob                            35.0400
 M33_3                                39.7300
 M26_3                                19.5600
 M26_2                                18.8100
 303-pob                               7.2400
 305                                  19.5100
 M31_3-pob                            21.8000
 M31_4                                19.5100
 309                                  30.1600
 M93_5-pob                            24.7300
 335-pob                              13.0700
 M70_25                               13.4800
 338                                   9.8600
 M84_1                                10.5100
 M84_2-pob                             9.0000
 M89_1-pob                             0.9000
 M70_24                               14.2400
 M70_21-pob                           14.1600
 M70_19                               16.8500
 M59_7                                23.2300
 M60_3-pob                            19.3200
 M64_3                                24.7100
 372-pob                              10.9900
 M70_16-pob                           20.8100
 M70_15                               18.6200
 M56_2                                21.1200
 M70_12-pob                           16.9200
 M70_8                                23.7800
 M70_5-pob                            22.0300
 M70_1-pob                            22.8500
 395                                  20.2500
 M54_2-pob                            20.6900
 M54_11-pob                           20.9000
 407                                  36.8300
 M81_1-pob                            37.4600
 M81_5-pob                            41.2000
 M81_6                                45.9400
 417-pob                              37.8000
 M80_6                                31.9800
 M80_8                                46.7900
 M82_1                                47.6800
 432                                  25.7600
 RUMIAREDA_POBOR                      30.9900
 438                                  18.9600
 439                                  15.8500
 440                                  14.7400
 M54_1                                30.5600
 442                                  37.1400
 443                                  36.5000
 444                                  41.3000
 445                                  41.3000
 M50_4                                41.3000
 M50_1                                16.2700
 M76_16                               18.7600
 M96_4-pob                            25.7800
 56-pobor                             30.5000
 55                                   35.0000
 R25_7-pob                            38.0000
 74                                   54.0300
 R25_5-cisn2                          22.8000
 R25_4-pob                            19.2000
 R25_3                                19.5000
 R25_1-pob                            19.5500
 R1302_1-pob                          27.0000
 R1302_3-pob                          42.0000
 R1308_1                              52.3000
 M38_1                                 5.7000
 H_Redl_SRED-pob                      80.0000
 87                                   50.9500
 M31_2                                34.2500
 R1302_3                              30.6000
 M86_3                                 3.2000
 M81_3-pob                            43.8000
 M70_7-pob                            23.0000
 700-pob                              42.0000
 316                                  49.8500
 237                                  15.0000
 703-popb                             17.0000
 701-pob                              23.8000
 702-pob                              21.5000
 M70_6-pob                            22.4000
 M54_8-pob                            25.0000
 M54_9                                30.4000
 312                                  43.5000
 M60_4                                15.8000
 373                                  46.1600
 M60_1                                21.0000
 396                                  74.0000
 M26_6-pob                            43.0000
 57-pob                                2.7000
 owocowe-pob                          18.3500
 pom_pob                              44.0000
 1                                     6.0000
 M26_4                                22.7300

[RESERVOIRS]
 UW_SIERADZKA                         39.6000 
 K4_Kolibki                           30.0900 
 UW_REDAII                             5.7000 

[TANKS]
 ZB_Witomino                          72.0200       2.0000       0.0000       4.3300      24.5400       0.0000 
 ZB_Kwidzynski_L                      71.9000       2.0700       0.0000       4.6500      35.5000       0.0000 
 ZB_Kwidzynski_P                      71.9100       2.0700       0.0000       4.6500      30.0000       0.0000 
 Zb_P1                                41.4000       2.5000       0.0000       5.5000      34.0000       0.0000 

[PIPES]
 M37                             M36_1                           M68_1                               247.8000     400.0000      87.0000       0.0000 
 248                             M68_1                           37_2                                 89.5000     600.0000      87.0000       0.0000 
 M36_ZbKdoZbC_1                  M36_1                           ZB_Witomino                         116.5000     400.0000      55.0000       0.0000 
 259                             37_2                            ZB_Kwidzynski_L                    1020.0000     600.0000      85.0000       0.0000 
 260                             37_2                            ZB_Kwidzynski_P                      27.3000     600.0000      87.0000       0.0000 
 263                             M36_1                           M32_26-pob                          202.7000     400.0000      55.0000       0.0000 
 264                             M32_26-pob                      M32_24                              271.2000     400.0000      55.0000       0.0000 
 266                             M32_26-pob                      M93_9                               310.6000     300.0000      85.0000       0.0000 
 M67_P1-KW1                      pom_pob                         M64_4-pob                           715.0000     600.0000      87.0000       0.0000 
 271                             M32_24                          M32_20-pob                          147.9000     400.0000      55.0000       0.0000 
 272                             M32_20-pob                      M32_17                              175.0000     400.0000      55.0000       0.0000 
 275                             M32_17                          231                                  62.4000     400.0000      85.0000       0.0000 
 276                             231                             M34_Partyz_1pob                     120.4000     300.0000      85.0000       0.0000 
 279                             M34_Partyz_1pob                 M35_Partyz_1pob                     974.0000     300.0000      75.0000       0.0000 
 M32_Sier-ZWit12                 M32_17                          M32_11-pobGEANT                     353.4000     400.0000      85.0000       0.0000 
 M32_Sier-ZWit11                 M32_11-pobGEANT                 M33_20                              510.0000     400.0000      85.0000       0.0000 
 M33_Sier-ZWit20                 M33_20                          M33_19                              401.9000     350.0000      55.0000       0.0000 
 145                             M32_24                          84                                   53.3000     400.0000      85.0000       0.0000 
 147                             M33_19                          85                                  130.6000     200.0000      85.0000       0.0000 
 M33_Sier-ZWit19                 M33_19                          M33_17                              111.1000     400.0000      55.0000       0.0000 
 M33_Sier-ZWit17                 M33_17                          M33_16                                4.0000     350.0000      85.0000       0.0000 
 M_Red£u¿ycka_5                  M33_17                          92                                  211.0000     400.0000      85.0000       0.0000 
 235                             92                              93                                    3.1000     250.0000      85.0000       0.0000 
 236                             93                              R25_8                                29.1000     200.0000      85.0000       0.0000 
 237                             92                              106-pobor                           187.6000     250.0000      85.0000       0.0000 
 249                             97                              102                                1000.0000     250.0000      85.0000       0.0000 
 303                             M26_8                           M26_7                              1000.0000     400.0000      85.0000       0.0000 
 304                             M26_7                           M28_3                              1000.0000     400.0000      85.0000       0.0000 
 M_Red£u¿ycka_3                  92                              M28_3                               242.0000     400.0000      85.0000       0.0000 
 M_Red£u¿ycka_2                  M28_3                           M28_2                               102.7000     400.0000      85.0000       0.0000 
 M_Red£u¿ycka_1                  M28_2                           M28_1                               177.4000     400.0000      85.0000       0.0000 
 310                             97                              H_Redl_WYSO-pob                     485.6000     250.0000      85.0000       0.0000 
 313                             106-pobor                       259-pob                             747.2000     250.0000      85.0000       0.0000 
 314                             259-pob                         M34_Partyz_1pob                     296.7000     350.0000      85.0000       0.0000 
 315                             M34_Partyz_1pob                 262-pob                             180.0000     300.0000      85.0000       0.0000 
 334                             M33_16                          93                                  210.1000     200.0000      85.0000       0.0000 
 361                             303-pob                         M26_2                               585.0000     200.0000      85.0000       0.0000 
 362                             M26_3                           R25_1-pob                            36.3000     200.0000      64.0000       0.0000 
 M30_KolAlZw_6                   M31_4                           M31_3-pob                           119.9000     200.0000      64.0000       0.0000 
 390                             M93_5-pob                       335-pob                             484.2000     300.0000      85.0000       0.0000 
 367                             M64_4-pob                       M70_25                               82.5000     600.0000      85.0000       0.0000 
 395                             M70_25                          338                                 377.0000     400.0000      85.0000       0.0000 
 396                             338                             M84_1                                22.0000     300.0000      87.0000       0.0000 
 397                             M84_1                           M84_2-pob                           206.0000     300.0000      87.0000       0.0000 
 398                             M84_2-pob                       M86_3                               431.3000     300.0000      87.0000       0.0000 
 409                             M84_1                           M93_5-pob                           539.0000     300.0000      85.0000       0.0000 
 M70_Morska_25                   M70_25                          M70_24                              447.2000     600.0000     100.0000       0.0000 
 M70_Morska_22                   M70_24                          M70_21-pob                          951.0000     600.0000     100.0000       0.0000 
 M70_Morska_20                   M70_21-pob                      M70_19                              961.8000     600.0000     100.0000       0.0000 
 M72_Kalsztajnow                 M70_19                          M59_7                               112.0000     400.0000      96.0000       0.0000 
 M64_P1-KW1                      M64_3                           M64_4-pob                           448.2000     600.0000      87.0000       0.0000 
 425                             M70_16-pob                      372-pob                             745.6000     300.0000      85.0000       0.0000 
 M71_Dzia³dowska                 M70_15                          M56_2                                74.9000     600.0000     100.0000       0.0000 
 456                             395                             M54_2-pob                            26.0000     400.0000      85.0000       0.0000 
 M54_P1-KW3                      M54_2-pob                       M54_8-pob                          1954.3000     600.0000      87.0000       0.0000 
 M54_P1-KW11                     M54_9                           M54_11-pob                         1414.5000     600.0000      87.0000       0.0000 
 M56_P1-KW1                      M54_11-pob                      M56_2                               270.4000     600.0000      87.0000       0.0000 
 466                             M54_9                           407                                 465.1000     300.0000      85.0000       0.0000 
 469                             407                             M81_1-pob                            45.3000     300.0000      85.0000       0.0000 
 M81_KartChrB_2                  M81_1-pob                       M81_3-pob                           226.0000     300.0000      96.0000       0.0000 
 M81_KartChrB_4                  M81_3-pob                       M81_5-pob                           182.3000     300.0000      96.0000       0.0000 
 M81_KartChrB_5                  M81_5-pob                       M81_6                               500.5000     300.0000      96.0000       0.0000 
 475                             M81_6                           417-pob                             341.9000     300.0000      85.0000       0.0000 
 480                             417-pob                         M80_6                               296.0000     300.0000      85.0000       0.0000 
 M80_Obw-¯uraw_1                 M80_6                           M54_8-pob                           750.0000     400.0000      96.0000       0.0000 
 M81_KartChrB_6                  M81_6                           M80_8                               786.6000     300.0000      96.0000       0.0000 
 M80_Obw-¯uraw_8                 M80_8                           M80_6                               561.5000     300.0000      96.0000       0.0000 
 502                             432                             438                                 180.5000     400.0000      85.0000       0.0000 
 503                             438                             439                                 400.0000     800.0000      85.0000       0.0000 
 504                             439                             440                                 274.0000     400.0000      85.0000       0.0000 
 509                             444                             445                                  16.7000     600.0000      85.0000       0.0000 
 ZB_P1                           M50_4                           Zb_P1                                52.9000     600.0000      97.0000       0.0000 
 513                             444                             Zb_P1                                36.6000     600.0000      99.0000       0.0000 
 M76_Pó³-Po³_1                   M54_8-pob                       owocowe-pob                         800.0000     500.0000      96.0000       0.0000 
 569                             259-pob                         56-pobor                            384.5000     100.0000      55.0000       0.0000 
 570                             56-pobor                        55                                  400.0000     100.0000      85.0000       0.0000 
 571                             55                              R25_8                               180.5000     200.0000      85.0000       0.0000 
 R25_AlZw_OR_8                   R25_8                           R25_7-pob                           551.0000     200.0000      55.0000       0.0000 
 R25_AlZw_OR_4                   R25_5-cisn2                     R25_4-pob                           574.2000     200.0000     107.0000       0.0000 
 R25_AlZw_OR_3                   R25_4-pob                       R25_3                               174.6000     200.0000     107.0000       0.0000 
 R25_AlZw_OR_2                   R25_3                           R25_1-pob                            38.2000     200.0000     107.0000       0.0000 
 M38_UReda_1                     M38_1                           M50_1                              8061.9000     800.0000      90.0000       0.0000 
 231                             H_Redl_SRED-pob                 74                                  176.8000     150.0000      85.0000       0.0000 
 284                             R25_8                           87                                  393.0000     200.0000      85.0000       0.0000 
 M30_KolAlZw_4                   309                             M31_2                               345.7000     250.0000      75.0000       0.0000 
 M30_KolAlZw_5                   M31_2                           M31_3-pob                           348.2000     200.0000      64.0000       0.0000 
 R1302_3                         R1302_1-pob                     R1302_3                             322.0000     200.0000     107.0000       0.0000 
 R1348                           R1302_3                         M31_2                              1051.0000     200.0000     140.0000       0.0000 
 R1302_4                         R1302_3                         R1302_3-pob                         362.5000     200.0000     107.0000       0.0000 
 R599_£owicka                    R1302_3-pob                     M33_7                               562.0000     200.0000      64.0000       0.0000 
 R1302_5                         R1302_3-pob                     R1308_1                             193.0000     200.0000     107.0000       0.0000 
 316                             57-pob                          M86_3                               512.6000     200.0000      85.0000       0.0000 
 318                             M86_3                           M89_1-pob                           553.9000     300.0000      75.0000       0.0000 
 450                             M81_3-pob                       700-pob                             369.5000     100.0000      85.0000       0.0000 
 471                             700-pob                         316                                 720.0000     100.0000      85.0000       0.0000 
 619                             M70_8                           701-pob                             313.5000     250.0000      85.0000       0.0000 
 621                             701-pob                         703-popb                            587.2000     250.0000      85.0000       0.0000 
 623                             703-popb                        237                                 335.0000     250.0000      85.0000       0.0000 
 624                             702-pob                         703-popb                            628.0000     200.0000      85.0000       0.0000 
 631                             M70_7-pob                       M54_9                               395.0000     350.0000      85.0000       0.0000 
 M81_KartChrB_1                  M54_9                           M81_1-pob                           490.0000     350.0000      96.0000       0.0000 
 618                             407                             312                                 170.0000     200.0000      85.0000       0.0000 
 M62_P1-KW                       M60_4                           M64_3                              1011.0000     600.0000      87.0000       0.0000 
 M73_Grabowo                     M60_4                           M70_21-pob                          109.0000     400.0000      96.0000       0.0000 
 M75_Okoniewskie                 M64_3                           M70_24                               87.2000     400.0000      96.0000       0.0000 
 M60_P1-KW1                      M59_7                           M60_1                               123.1000     600.0000      87.0000       0.0000 
 643                             M60_1                           373                                 660.0000     200.0000      85.0000       0.0000 
 255                             396                             ZB_Witomino                           3.7000     400.0000      85.0000       0.0000 
 121                             305                             M26_2                                30.0000     200.0000      85.0000       0.0000 
 15                              105                             102                                  74.6000     250.0000      85.0000       0.0000 
 122                             84                              M93_9                               397.0000     150.0000      85.0000       0.0000 
 389                             M93_9                           M93_5-pob                           244.1000     300.0000      85.0000       0.0000 
 M60_P1-KW4                      M60_3-pob                       M60_4                               463.2000     600.0000      87.0000       0.0000 
 M60_P1-KW2                      M60_1                           M60_3-pob                           378.7000     600.0000      87.0000       0.0000 
 M70_Morska_18                   M70_16-pob                      M70_19                              760.0000     600.0000     100.0000       0.0000 
 M70_Morska_16                   M70_15                          M70_16-pob                          255.4000     600.0000     100.0000       0.0000 
 M58_P1-KW1                      M56_2                           M59_7                              1194.6000     600.0000      87.0000       0.0000 
 M70_Morska_13                   M70_12-pob                      M70_15                              519.1000     600.0000     100.0000       0.0000 
 M70_Morska_9                    M70_8                           M70_12-pob                          901.9500     600.0000     100.0000       0.0000 
 M70_Morska_8                    M70_7-pob                       M70_8                               426.0000     450.0000     100.0000       0.0000 
 M54_P1-KW9                      M54_8-pob                       M54_9                               267.2000     600.0000      87.0000       0.0000 
 M70_Morska_1                    395                             M70_1-pob                           270.2000     450.0000     100.0000       0.0000 
 M70_Morska_2                    M70_1-pob                       M70_5-pob                          1473.3000     450.0000     100.0000       0.0000 
 M70_Morska_6                    M70_5-pob                       M70_6-pob                           203.0000     450.0000      96.0000       0.0000 
 M70_Morska_7                    M70_6-pob                       M70_7-pob                           395.4000     450.0000      96.0000       0.0000 
 664                             395                             432                                 362.0000     300.0000      85.0000       0.0000 
 669                             432                             RUMIAREDA_POBOR                     614.5000     300.0000      85.0000       0.0000 
 671                             M50_1                           M50_4                               738.1000     800.0000      90.0000       0.0000 
 M54_P1-KW1                      443                             M54_1                                59.2000     600.0000      85.0000       0.0000 
 674                             443                             442                                  10.4000     600.0000      85.0000       0.0000 
 675                             444                             442                                  21.7000     600.0000      85.0000       0.0000 CLOSED
 676                             442                             M54_1                                65.2000     600.0000      85.0000       0.0000 
 M54_P1-KW2                      M54_1                           M54_2-pob                           239.8000     600.0000      87.0000       0.0000 
 M26_Orlowo_5                    M26_6-pob                       M26_7                               892.4000     400.0000      85.0000       0.0000 
 M26_Orlowo_4                    M26_4                           M26_6-pob                           905.5000     400.0000      93.0000       0.0000 
 R25_AlZw_OR_5                   R25_5-cisn2                     R25_7-pob                           896.4000     200.0000     107.0000       0.0000 
 19                              M31_3-pob                       R25_3                               290.0000     150.0000      85.0000       0.0000 
 M33_Sier-ZWit5                  M33_3                           M33_5-pob                           378.4000     350.0000      55.0000       0.0000 
 M33_Sier-ZWit6                  M33_5-pob                       M33_7                               485.6000     350.0000      55.0000       0.0000 
 M33_Sier-ZWit9                  M33_7                           M33_11-pob                         1025.0000     350.0000      55.0000       0.0000 
 M33_Sier-ZWit12                 M33_11-pob                      M33_16                              706.8000     350.0000      55.0000       0.0000 
 R131_1                          R1302_1-pob                     R25_5-cisn2                         340.0000     150.0000      55.0000       0.0000 
 M26_Orlowo                      M26_3                           M26_2                                 7.0000     200.0000      64.0000       0.0000 
 M82_ZurPC_1                     M80_8                           M82_1                                97.0000     250.0000      89.0000       0.0000 
 1                               M76_16                          owocowe-pob                        1658.0000     500.0000      96.0000       0.0000 
 2                               M68_1                           pom_pob                             715.0000     600.0000      87.0000       0.0000 
 3                               1                               M38_1                               200.0000     400.0000      97.0000       0.0000 
 4                               M26_3                           M26_4                               622.8000     400.0000      93.0000       0.0000 

[PUMPS]
 P1_SIERADZKA                    UW_SIERADZKA                    M33_3                            HEAD SIERADZKA_P1   PATTERN  P1_SIERADZKA
 233                             M28_1                           74                               HEAD REDLOWO_Z1
 234                             M28_1                           105                              HEAD REDLOWO_Z4
 SUW_KOLIBKI                     K4_Kolibki                      309                              HEAD nasza_zastepcza   PATTERN  SUW_KOLIBKI
 P_P1                            445                             443                              HEAD P1_Z3   PATTERN  P_P1
 SUW_REDA                        UW_REDAII                       M38_1                            HEAD REDA_P1   PATTERN  SUW_REDA

[VALVES]
 RedC_Redlow1                    87                              102                                 200.0000   PRV       0.0000      20.0000
 324                             M50_4                           445                                 600.0000   PRV       0.0000       0.0000